Circuit: * C:\Users\Matthew-NB\Desktop\Rudimentary APPS.asc

Direct Newton iteration for .op point succeeded.



Date: Mon Aug 05 18:29:55 2019
Total elapsed time: 0.467 seconds.

tnom = 27
temp = 27
method = modified trap
totiter = 6064
traniter = 6054
tranpoints = 2001
accept = 1673
rejected = 328
matrix size = 236
fillins = 230
solver = Normal
Thread vector: 59.6/26.3[4] 23.2/12.1[4] 11.1/5.2[4] 2.1/5.4[1]  2592/500
Matrix Compiler1: 28.30 KB object code size  25.3/14.3/[4.1]
Matrix Compiler2: 24.42 KB object code size  9.4/13.6/[3.0]

